!- Windows Line endings

Version,
    23.2;                     !- Version Identifier

SimulationControl,
    Yes,                      !- Do Zone Sizing Calculation
    Yes,                      !- Do System Sizing Calculation
    Yes,                      !- Do Plant Sizing Calculation
    No,                       !- Run Simulation for Sizing Periods
    Yes,                      !- Run Simulation for Weather File Run Periods
    No,                       !- Do HVAC Sizing Simulation for Sizing Periods
    ;                         !- Maximum Number of HVAC Sizing Simulation Passes

Building,
    Office_1,                 !- Name
    0,                        !- North Axis
    City,                     !- Terrain
    ,                         !- Loads Convergence Tolerance Value
    ,                         !- Temperature Convergence Tolerance Value
    FullExteriorWithReflections,    !- Solar Distribution
    ,                         !- Maximum Number of Warmup Days
    ;                         !- Minimum Number of Warmup Days

ShadowCalculation,
    PolygonClipping,          !- Shading Calculation Method
    Periodic,                 !- Shading Calculation Update Frequency Method
    30,                       !- Shading Calculation Update Frequency
    15000,                    !- Maximum Figures in Shadow Overlap Calculations
    SutherlandHodgman,        !- Polygon Clipping Algorithm
    512,                      !- Pixel Counting Resolution
    SimpleSkyDiffuseModeling,    !- Sky Diffuse Modeling Algorithm
    No,                       !- Output External Shading Calculation Results
    No,                       !- Disable SelfShading Within Shading Zone Groups
    No;                       !- Disable SelfShading From Shading Zone Groups to Other Zones

HeatBalanceAlgorithm,
    ConductionTransferFunction,    !- Algorithm
    200;                      !- Surface Temperature Upper Limit

ZONEAIRCONTAMINANTBALANCE,
    Yes,                      !- Carbon Dioxide Concentration
    Outdoor CO2 concentration,    !- Outdoor Carbon Dioxide Schedule Name
    No;                       !- Generic Contaminant Concentration

Timestep,
    4;                        !- Number of Timesteps per Hour

Site:Location,
    Site 1,                   !- Name
    0,                        !- Latitude
    0,                        !- Longitude
    0,                        !- Time Zone
    0;                        !- Elevation

SIZINGPERIOD:DESIGNDAY,
    clm0_WinterDD,            !- Name
    2,                        !- Month
    15,                       !- Day of Month
    WinterDesignDay,          !- Day Type
    -12.7,                    !- Maximum DryBulb Temperature
    0,                        !- Daily DryBulb Temperature Range
    DefaultMultipliers,       !- DryBulb Temperature Range Modifier Type
    ,                         !- DryBulb Temperature Range Modifier Day Schedule Name
    Wetbulb,                  !- Humidity Condition Type
    -12.7,                    !- Wetbulb or DewPoint at Maximum DryBulb
    ,                         !- Humidity Condition Day Schedule Name
    ,                         !- Humidity Ratio at Maximum DryBulb
    ,                         !- Enthalpy at Maximum DryBulb
    ,                         !- Daily WetBulb Temperature Range
    100383,                   !- Barometric Pressure
    0.7,                      !- Wind Speed
    0,                        !- Wind Direction
    No,                       !- Rain Indicator
    No,                       !- Snow Indicator
    No,                       !- Daylight Saving Time Indicator
    ASHRAEClearSky,           !- Solar Model Indicator
    ,                         !- Beam Solar Day Schedule Name
    ,                         !- Diffuse Solar Day Schedule Name
    0,                        !- ASHRAE Clear Sky Optical Depth for Beam Irradiance taub
    0,                        !- ASHRAE Clear Sky Optical Depth for Diffuse Irradiance taud
    0,                        !- Sky Clearness
    ,                         !- Maximum Number Warmup Days
    FullResetAtBeginEnvironment;    !- Begin Environment Reset Mode

SIZINGPERIOD:DESIGNDAY,
    clm0_SummerDD,            !- Name
    7,                        !- Month
    5,                        !- Day of Month
    SummerDesignDay,          !- Day Type
    31.5,                     !- Maximum DryBulb Temperature
    9.9,                      !- Daily DryBulb Temperature Range
    DefaultMultipliers,       !- DryBulb Temperature Range Modifier Type
    ,                         !- DryBulb Temperature Range Modifier Day Schedule Name
    Wetbulb,                  !- Humidity Condition Type
    23.9,                     !- Wetbulb or DewPoint at Maximum DryBulb
    ,                         !- Humidity Condition Day Schedule Name
    ,                         !- Humidity Ratio at Maximum DryBulb
    ,                         !- Enthalpy at Maximum DryBulb
    3.5,                      !- Daily WetBulb Temperature Range
    100383,                   !- Barometric Pressure
    2.1,                      !- Wind Speed
    250,                      !- Wind Direction
    No,                       !- Rain Indicator
    No,                       !- Snow Indicator
    No,                       !- Daylight Saving Time Indicator
    ASHRAETau2017,            !- Solar Model Indicator
    ,                         !- Beam Solar Day Schedule Name
    ,                         !- Diffuse Solar Day Schedule Name
    nan,                      !- ASHRAE Clear Sky Optical Depth for Beam Irradiance taub
    nan,                      !- ASHRAE Clear Sky Optical Depth for Diffuse Irradiance taud
    0,                        !- Sky Clearness
    ,                         !- Maximum Number Warmup Days
    FullResetAtBeginEnvironment;    !- Begin Environment Reset Mode

RunPeriod,
    Run Period 1,             !- Name
    1,                        !- Begin Month
    1,                        !- Begin Day of Month
    2006,                     !- Begin Year
    12,                       !- End Month
    31,                       !- End Day of Month
    2006,                     !- End Year
    Sunday,                   !- Day of Week for Start Day
    No,                       !- Use Weather File Holidays and Special Days
    No,                       !- Use Weather File Daylight Saving Period
    No,                       !- Apply Weekend Holiday Rule
    Yes,                      !- Use Weather File Rain Indicators
    Yes;                      !- Use Weather File Snow Indicators

RUNPERIODCONTROL:SPECIALDAYS,
    NewYearDay,               !- Name
    1/1,                      !- Start Date
    1,                        !- Duration
    Holiday;                  !- Special Day Type

RUNPERIODCONTROL:SPECIALDAYS,
    LunarNewYear,             !- Name
    2/1,                      !- Start Date
    3,                        !- Duration
    Holiday;                  !- Special Day Type

RUNPERIODCONTROL:SPECIALDAYS,
    Samiljeol,                !- Name
    3/1,                      !- Start Date
    1,                        !- Duration
    Holiday;                  !- Special Day Type

RUNPERIODCONTROL:SPECIALDAYS,
    ChildrensDay,             !- Name
    5/5,                      !- Start Date
    1,                        !- Duration
    Holiday;                  !- Special Day Type

RUNPERIODCONTROL:SPECIALDAYS,
    BuddhasBirthday,          !- Name
    5/20,                     !- Start Date
    1,                        !- Duration
    Holiday;                  !- Special Day Type

RUNPERIODCONTROL:SPECIALDAYS,
    MemorialDay,              !- Name
    6/6,                      !- Start Date
    1,                        !- Duration
    Holiday;                  !- Special Day Type

RUNPERIODCONTROL:SPECIALDAYS,
    LiberationDay,            !- Name
    8/15,                     !- Start Date
    1,                        !- Duration
    Holiday;                  !- Special Day Type

RUNPERIODCONTROL:SPECIALDAYS,
    Chuseok,                  !- Name
    9/25,                     !- Start Date
    3,                        !- Duration
    Holiday;                  !- Special Day Type

RUNPERIODCONTROL:SPECIALDAYS,
    Gaecheonjeol,             !- Name
    10/3,                     !- Start Date
    1,                        !- Duration
    Holiday;                  !- Special Day Type

RUNPERIODCONTROL:SPECIALDAYS,
    HangeulDay,               !- Name
    10/9,                     !- Start Date
    1,                        !- Duration
    Holiday;                  !- Special Day Type

RUNPERIODCONTROL:SPECIALDAYS,
    Christmas,                !- Name
    12/25,                    !- Start Date
    1,                        !- Duration
    Holiday;                  !- Special Day Type

SITE:GROUNDTEMPERATURE:BUILDINGSURFACE,
    -0.76,                    !- January Ground Temperature
    -1.98,                    !- February Ground Temperature
    0.18,                     !- March Ground Temperature
    3.55,                     !- April Ground Temperature
    12.37,                    !- May Ground Temperature
    19.18,                    !- June Ground Temperature
    23.78,                    !- July Ground Temperature
    25.17,                    !- August Ground Temperature
    22.79,                    !- September Ground Temperature
    17.51,                    !- October Ground Temperature
    10.44,                    !- November Ground Temperature
    3.88;                     !- December Ground Temperature

Site:WaterMainsTemperature,
    CorrelationFromWeatherFile;    !- Calculation Method

SCHEDULETYPELIMITS,
    Fractional,               !- Name
    0,                        !- Lower Limit Value
    1,                        !- Upper Limit Value
    Continuous,               !- Numeric Type
    Dimensionless;            !- Unit Type

SCHEDULETYPELIMITS,
    Activity Level,           !- Name
    0,                        !- Lower Limit Value
    5000,                     !- Upper Limit Value
    Continuous,               !- Numeric Type
    ActivityLevel;            !- Unit Type

SCHEDULETYPELIMITS,
    Control,                  !- Name
    0,                        !- Lower Limit Value
    4,                        !- Upper Limit Value
    Discrete,                 !- Numeric Type
    Control;                  !- Unit Type

SCHEDULETYPELIMITS,
    Temperature,              !- Name
    -273.15,                  !- Lower Limit Value
    500,                      !- Upper Limit Value
    Continuous,               !- Numeric Type
    Temperature;              !- Unit Type

SCHEDULETYPELIMITS,
    OnOff,                    !- Name
    0,                        !- Lower Limit Value
    1,                        !- Upper Limit Value
    Discrete,                 !- Numeric Type
    Availability;             !- Unit Type

SCHEDULETYPELIMITS,
    Concentration,            !- Name
    0,                        !- Lower Limit Value
    100000,                   !- Upper Limit Value
    Continuous,               !- Numeric Type
    Dimensionless;            !- Unit Type

SCHEDULE:DAY:INTERVAL,
    Always_off_Daily_Fractional,    !- Name
    Fractional,               !- Schedule Type Limits Name
    No,                       !- Interpolate to Timestep
    24:00,                    !- Time 1
    0;                        !- Value Until Time 1

SCHEDULE:DAY:INTERVAL,
    Always_off_Daily_Activity,    !- Name
    Activity Level,           !- Schedule Type Limits Name
    No,                       !- Interpolate to Timestep
    24:00,                    !- Time 1
    0;                        !- Value Until Time 1

SCHEDULE:DAY:INTERVAL,
    Always_off_Daily_Heating,    !- Name
    Temperature,              !- Schedule Type Limits Name
    No,                       !- Interpolate to Timestep
    24:00,                    !- Time 1
    -50;                      !- Value Until Time 1

SCHEDULE:DAY:INTERVAL,
    Always_off_Daily_Cooling,    !- Name
    Temperature,              !- Schedule Type Limits Name
    No,                       !- Interpolate to Timestep
    24:00,                    !- Time 1
    50;                       !- Value Until Time 1

SCHEDULE:DAY:INTERVAL,
    BigOffice_Occupancy_Daily,    !- Name
    Fractional,               !- Schedule Type Limits Name
    No,                       !- Interpolate to Timestep
    09:00,                    !- Time 1
    0,                        !- Value Until Time 1
    18:00,                    !- Time 2
    1,                        !- Value Until Time 2
    24:00,                    !- Time 3
    0;                        !- Value Until Time 3

SCHEDULE:DAY:INTERVAL,
    BigOffice_Activity_Daily,    !- Name
    Activity Level,           !- Schedule Type Limits Name
    No,                       !- Interpolate to Timestep
    09:00,                    !- Time 1
    0,                        !- Value Until Time 1
    18:00,                    !- Time 2
    126,                      !- Value Until Time 2
    24:00,                    !- Time 3
    0;                        !- Value Until Time 3

SCHEDULE:DAY:INTERVAL,
    BigOffice_Lighting_Daily,    !- Name
    Fractional,               !- Schedule Type Limits Name
    No,                       !- Interpolate to Timestep
    09:00,                    !- Time 1
    0,                        !- Value Until Time 1
    18:00,                    !- Time 2
    1,                        !- Value Until Time 2
    24:00,                    !- Time 3
    0;                        !- Value Until Time 3

SCHEDULE:DAY:INTERVAL,
    BigOffice_Equipment_Daily,    !- Name
    Fractional,               !- Schedule Type Limits Name
    No,                       !- Interpolate to Timestep
    07:00,                    !- Time 1
    0,                        !- Value Until Time 1
    18:00,                    !- Time 2
    1,                        !- Value Until Time 2
    24:00,                    !- Time 3
    0;                        !- Value Until Time 3

SCHEDULE:DAY:INTERVAL,
    BigOffice_Heating_Daily,    !- Name
    Temperature,              !- Schedule Type Limits Name
    No,                       !- Interpolate to Timestep
    07:00,                    !- Time 1
    -50,                      !- Value Until Time 1
    18:00,                    !- Time 2
    20,                       !- Value Until Time 2
    24:00,                    !- Time 3
    -50;                      !- Value Until Time 3

SCHEDULE:DAY:INTERVAL,
    BigOffice_Cooling_Daily,    !- Name
    Temperature,              !- Schedule Type Limits Name
    No,                       !- Interpolate to Timestep
    07:00,                    !- Time 1
    50,                       !- Value Until Time 1
    18:00,                    !- Time 2
    26,                       !- Value Until Time 2
    24:00,                    !- Time 3
    50;                       !- Value Until Time 3

SCHEDULE:DAY:INTERVAL,
    OccupantSpace_Occupancy_Daily,    !- Name
    Fractional,               !- Schedule Type Limits Name
    No,                       !- Interpolate to Timestep
    07:00,                    !- Time 1
    0,                        !- Value Until Time 1
    18:00,                    !- Time 2
    1,                        !- Value Until Time 2
    24:00,                    !- Time 3
    0;                        !- Value Until Time 3

SCHEDULE:DAY:INTERVAL,
    OccupantSpace_Activity_Daily,    !- Name
    Activity Level,           !- Schedule Type Limits Name
    No,                       !- Interpolate to Timestep
    07:00,                    !- Time 1
    0,                        !- Value Until Time 1
    18:00,                    !- Time 2
    126,                      !- Value Until Time 2
    24:00,                    !- Time 3
    0;                        !- Value Until Time 3

SCHEDULE:DAY:INTERVAL,
    OccupantSpace_Lighting_Daily,    !- Name
    Fractional,               !- Schedule Type Limits Name
    No,                       !- Interpolate to Timestep
    07:00,                    !- Time 1
    0,                        !- Value Until Time 1
    18:00,                    !- Time 2
    1,                        !- Value Until Time 2
    24:00,                    !- Time 3
    0;                        !- Value Until Time 3

SCHEDULE:DAY:INTERVAL,
    OccupantSpace_Equipment_Daily,    !- Name
    Fractional,               !- Schedule Type Limits Name
    No,                       !- Interpolate to Timestep
    07:00,                    !- Time 1
    0,                        !- Value Until Time 1
    18:00,                    !- Time 2
    1,                        !- Value Until Time 2
    24:00,                    !- Time 3
    0;                        !- Value Until Time 3

SCHEDULE:DAY:INTERVAL,
    OccupantSpace_Heating_Daily,    !- Name
    Temperature,              !- Schedule Type Limits Name
    No,                       !- Interpolate to Timestep
    07:00,                    !- Time 1
    -50,                      !- Value Until Time 1
    18:00,                    !- Time 2
    20,                       !- Value Until Time 2
    24:00,                    !- Time 3
    -50;                      !- Value Until Time 3

SCHEDULE:DAY:INTERVAL,
    OccupantSpace_Cooling_Daily,    !- Name
    Temperature,              !- Schedule Type Limits Name
    No,                       !- Interpolate to Timestep
    07:00,                    !- Time 1
    50,                       !- Value Until Time 1
    18:00,                    !- Time 2
    26,                       !- Value Until Time 2
    24:00,                    !- Time 3
    50;                       !- Value Until Time 3

SCHEDULE:WEEK:DAILY,
    Always_off_Week_Fractional,    !- Name
    Always_off_Daily_Fractional,    !- Sunday ScheduleDay Name
    Always_off_Daily_Fractional,    !- Monday ScheduleDay Name
    Always_off_Daily_Fractional,    !- Tuesday ScheduleDay Name
    Always_off_Daily_Fractional,    !- Wednesday ScheduleDay Name
    Always_off_Daily_Fractional,    !- Thursday ScheduleDay Name
    Always_off_Daily_Fractional,    !- Friday ScheduleDay Name
    Always_off_Daily_Fractional,    !- Saturday ScheduleDay Name
    Always_off_Daily_Fractional,    !- Holiday ScheduleDay Name
    Always_off_Daily_Fractional,    !- SummerDesignDay ScheduleDay Name
    Always_off_Daily_Fractional,    !- WinterDesignDay ScheduleDay Name
    Always_off_Daily_Fractional,    !- CustomDay1 ScheduleDay Name
    Always_off_Daily_Fractional;    !- CustomDay2 ScheduleDay Name

SCHEDULE:WEEK:DAILY,
    Always_off_Week_Activity,    !- Name
    Always_off_Daily_Activity,    !- Sunday ScheduleDay Name
    Always_off_Daily_Activity,    !- Monday ScheduleDay Name
    Always_off_Daily_Activity,    !- Tuesday ScheduleDay Name
    Always_off_Daily_Activity,    !- Wednesday ScheduleDay Name
    Always_off_Daily_Activity,    !- Thursday ScheduleDay Name
    Always_off_Daily_Activity,    !- Friday ScheduleDay Name
    Always_off_Daily_Activity,    !- Saturday ScheduleDay Name
    Always_off_Daily_Activity,    !- Holiday ScheduleDay Name
    Always_off_Daily_Activity,    !- SummerDesignDay ScheduleDay Name
    Always_off_Daily_Activity,    !- WinterDesignDay ScheduleDay Name
    Always_off_Daily_Activity,    !- CustomDay1 ScheduleDay Name
    Always_off_Daily_Activity;    !- CustomDay2 ScheduleDay Name

SCHEDULE:WEEK:DAILY,
    Always_off_Week_Heating,    !- Name
    Always_off_Daily_Heating,    !- Sunday ScheduleDay Name
    Always_off_Daily_Heating,    !- Monday ScheduleDay Name
    Always_off_Daily_Heating,    !- Tuesday ScheduleDay Name
    Always_off_Daily_Heating,    !- Wednesday ScheduleDay Name
    Always_off_Daily_Heating,    !- Thursday ScheduleDay Name
    Always_off_Daily_Heating,    !- Friday ScheduleDay Name
    Always_off_Daily_Heating,    !- Saturday ScheduleDay Name
    Always_off_Daily_Heating,    !- Holiday ScheduleDay Name
    Always_off_Daily_Heating,    !- SummerDesignDay ScheduleDay Name
    Always_off_Daily_Heating,    !- WinterDesignDay ScheduleDay Name
    Always_off_Daily_Heating,    !- CustomDay1 ScheduleDay Name
    Always_off_Daily_Heating;    !- CustomDay2 ScheduleDay Name

SCHEDULE:WEEK:DAILY,
    Always_off_Week_Cooling,    !- Name
    Always_off_Daily_Cooling,    !- Sunday ScheduleDay Name
    Always_off_Daily_Cooling,    !- Monday ScheduleDay Name
    Always_off_Daily_Cooling,    !- Tuesday ScheduleDay Name
    Always_off_Daily_Cooling,    !- Wednesday ScheduleDay Name
    Always_off_Daily_Cooling,    !- Thursday ScheduleDay Name
    Always_off_Daily_Cooling,    !- Friday ScheduleDay Name
    Always_off_Daily_Cooling,    !- Saturday ScheduleDay Name
    Always_off_Daily_Cooling,    !- Holiday ScheduleDay Name
    Always_off_Daily_Cooling,    !- SummerDesignDay ScheduleDay Name
    Always_off_Daily_Cooling,    !- WinterDesignDay ScheduleDay Name
    Always_off_Daily_Cooling,    !- CustomDay1 ScheduleDay Name
    Always_off_Daily_Cooling;    !- CustomDay2 ScheduleDay Name

SCHEDULE:WEEK:DAILY,
    BigOffice_Occupancy_Week,    !- Name
    Always_off_Daily_Fractional,    !- Sunday ScheduleDay Name
    BigOffice_Occupancy_Daily,    !- Monday ScheduleDay Name
    BigOffice_Occupancy_Daily,    !- Tuesday ScheduleDay Name
    BigOffice_Occupancy_Daily,    !- Wednesday ScheduleDay Name
    BigOffice_Occupancy_Daily,    !- Thursday ScheduleDay Name
    BigOffice_Occupancy_Daily,    !- Friday ScheduleDay Name
    Always_off_Daily_Fractional,    !- Saturday ScheduleDay Name
    Always_off_Daily_Fractional,    !- Holiday ScheduleDay Name
    BigOffice_Occupancy_Daily,    !- SummerDesignDay ScheduleDay Name
    BigOffice_Occupancy_Daily,    !- WinterDesignDay ScheduleDay Name
    Always_off_Daily_Fractional,    !- CustomDay1 ScheduleDay Name
    Always_off_Daily_Fractional;    !- CustomDay2 ScheduleDay Name

SCHEDULE:WEEK:DAILY,
    BigOffice_Activity_Week,    !- Name
    Always_off_Daily_Activity,    !- Sunday ScheduleDay Name
    BigOffice_Activity_Daily,    !- Monday ScheduleDay Name
    BigOffice_Activity_Daily,    !- Tuesday ScheduleDay Name
    BigOffice_Activity_Daily,    !- Wednesday ScheduleDay Name
    BigOffice_Activity_Daily,    !- Thursday ScheduleDay Name
    BigOffice_Activity_Daily,    !- Friday ScheduleDay Name
    Always_off_Daily_Activity,    !- Saturday ScheduleDay Name
    Always_off_Daily_Activity,    !- Holiday ScheduleDay Name
    BigOffice_Activity_Daily,    !- SummerDesignDay ScheduleDay Name
    BigOffice_Activity_Daily,    !- WinterDesignDay ScheduleDay Name
    Always_off_Daily_Activity,    !- CustomDay1 ScheduleDay Name
    Always_off_Daily_Activity;    !- CustomDay2 ScheduleDay Name

SCHEDULE:WEEK:DAILY,
    BigOffice_Lighting_Week,    !- Name
    Always_off_Daily_Fractional,    !- Sunday ScheduleDay Name
    BigOffice_Lighting_Daily,    !- Monday ScheduleDay Name
    BigOffice_Lighting_Daily,    !- Tuesday ScheduleDay Name
    BigOffice_Lighting_Daily,    !- Wednesday ScheduleDay Name
    BigOffice_Lighting_Daily,    !- Thursday ScheduleDay Name
    BigOffice_Lighting_Daily,    !- Friday ScheduleDay Name
    Always_off_Daily_Fractional,    !- Saturday ScheduleDay Name
    Always_off_Daily_Fractional,    !- Holiday ScheduleDay Name
    BigOffice_Lighting_Daily,    !- SummerDesignDay ScheduleDay Name
    BigOffice_Lighting_Daily,    !- WinterDesignDay ScheduleDay Name
    Always_off_Daily_Fractional,    !- CustomDay1 ScheduleDay Name
    Always_off_Daily_Fractional;    !- CustomDay2 ScheduleDay Name

SCHEDULE:WEEK:DAILY,
    BigOffice_Equipment_Week,    !- Name
    Always_off_Daily_Fractional,    !- Sunday ScheduleDay Name
    BigOffice_Equipment_Daily,    !- Monday ScheduleDay Name
    BigOffice_Equipment_Daily,    !- Tuesday ScheduleDay Name
    BigOffice_Equipment_Daily,    !- Wednesday ScheduleDay Name
    BigOffice_Equipment_Daily,    !- Thursday ScheduleDay Name
    BigOffice_Equipment_Daily,    !- Friday ScheduleDay Name
    Always_off_Daily_Fractional,    !- Saturday ScheduleDay Name
    Always_off_Daily_Fractional,    !- Holiday ScheduleDay Name
    BigOffice_Equipment_Daily,    !- SummerDesignDay ScheduleDay Name
    BigOffice_Equipment_Daily,    !- WinterDesignDay ScheduleDay Name
    Always_off_Daily_Fractional,    !- CustomDay1 ScheduleDay Name
    Always_off_Daily_Fractional;    !- CustomDay2 ScheduleDay Name

SCHEDULE:WEEK:DAILY,
    BigOffice_Heating_Week,    !- Name
    Always_off_Daily_Heating,    !- Sunday ScheduleDay Name
    BigOffice_Heating_Daily,    !- Monday ScheduleDay Name
    BigOffice_Heating_Daily,    !- Tuesday ScheduleDay Name
    BigOffice_Heating_Daily,    !- Wednesday ScheduleDay Name
    BigOffice_Heating_Daily,    !- Thursday ScheduleDay Name
    BigOffice_Heating_Daily,    !- Friday ScheduleDay Name
    Always_off_Daily_Heating,    !- Saturday ScheduleDay Name
    Always_off_Daily_Heating,    !- Holiday ScheduleDay Name
    BigOffice_Heating_Daily,    !- SummerDesignDay ScheduleDay Name
    BigOffice_Heating_Daily,    !- WinterDesignDay ScheduleDay Name
    Always_off_Daily_Heating,    !- CustomDay1 ScheduleDay Name
    Always_off_Daily_Heating;    !- CustomDay2 ScheduleDay Name

SCHEDULE:WEEK:DAILY,
    BigOffice_Cooling_Week,    !- Name
    Always_off_Daily_Cooling,    !- Sunday ScheduleDay Name
    BigOffice_Cooling_Daily,    !- Monday ScheduleDay Name
    BigOffice_Cooling_Daily,    !- Tuesday ScheduleDay Name
    BigOffice_Cooling_Daily,    !- Wednesday ScheduleDay Name
    BigOffice_Cooling_Daily,    !- Thursday ScheduleDay Name
    BigOffice_Cooling_Daily,    !- Friday ScheduleDay Name
    Always_off_Daily_Cooling,    !- Saturday ScheduleDay Name
    Always_off_Daily_Cooling,    !- Holiday ScheduleDay Name
    BigOffice_Cooling_Daily,    !- SummerDesignDay ScheduleDay Name
    BigOffice_Cooling_Daily,    !- WinterDesignDay ScheduleDay Name
    Always_off_Daily_Cooling,    !- CustomDay1 ScheduleDay Name
    Always_off_Daily_Cooling;    !- CustomDay2 ScheduleDay Name

SCHEDULE:WEEK:DAILY,
    OccupantSpace_Occupancy_Week,    !- Name
    Always_off_Daily_Fractional,    !- Sunday ScheduleDay Name
    OccupantSpace_Occupancy_Daily,    !- Monday ScheduleDay Name
    OccupantSpace_Occupancy_Daily,    !- Tuesday ScheduleDay Name
    OccupantSpace_Occupancy_Daily,    !- Wednesday ScheduleDay Name
    OccupantSpace_Occupancy_Daily,    !- Thursday ScheduleDay Name
    OccupantSpace_Occupancy_Daily,    !- Friday ScheduleDay Name
    Always_off_Daily_Fractional,    !- Saturday ScheduleDay Name
    Always_off_Daily_Fractional,    !- Holiday ScheduleDay Name
    OccupantSpace_Occupancy_Daily,    !- SummerDesignDay ScheduleDay Name
    OccupantSpace_Occupancy_Daily,    !- WinterDesignDay ScheduleDay Name
    Always_off_Daily_Fractional,    !- CustomDay1 ScheduleDay Name
    Always_off_Daily_Fractional;    !- CustomDay2 ScheduleDay Name

SCHEDULE:WEEK:DAILY,
    OccupantSpace_Activity_Week,    !- Name
    Always_off_Daily_Activity,    !- Sunday ScheduleDay Name
    OccupantSpace_Activity_Daily,    !- Monday ScheduleDay Name
    OccupantSpace_Activity_Daily,    !- Tuesday ScheduleDay Name
    OccupantSpace_Activity_Daily,    !- Wednesday ScheduleDay Name
    OccupantSpace_Activity_Daily,    !- Thursday ScheduleDay Name
    OccupantSpace_Activity_Daily,    !- Friday ScheduleDay Name
    Always_off_Daily_Activity,    !- Saturday ScheduleDay Name
    Always_off_Daily_Activity,    !- Holiday ScheduleDay Name
    OccupantSpace_Activity_Daily,    !- SummerDesignDay ScheduleDay Name
    OccupantSpace_Activity_Daily,    !- WinterDesignDay ScheduleDay Name
    Always_off_Daily_Activity,    !- CustomDay1 ScheduleDay Name
    Always_off_Daily_Activity;    !- CustomDay2 ScheduleDay Name

SCHEDULE:WEEK:DAILY,
    OccupantSpace_Lighting_Week,    !- Name
    Always_off_Daily_Fractional,    !- Sunday ScheduleDay Name
    OccupantSpace_Lighting_Daily,    !- Monday ScheduleDay Name
    OccupantSpace_Lighting_Daily,    !- Tuesday ScheduleDay Name
    OccupantSpace_Lighting_Daily,    !- Wednesday ScheduleDay Name
    OccupantSpace_Lighting_Daily,    !- Thursday ScheduleDay Name
    OccupantSpace_Lighting_Daily,    !- Friday ScheduleDay Name
    Always_off_Daily_Fractional,    !- Saturday ScheduleDay Name
    Always_off_Daily_Fractional,    !- Holiday ScheduleDay Name
    OccupantSpace_Lighting_Daily,    !- SummerDesignDay ScheduleDay Name
    OccupantSpace_Lighting_Daily,    !- WinterDesignDay ScheduleDay Name
    Always_off_Daily_Fractional,    !- CustomDay1 ScheduleDay Name
    Always_off_Daily_Fractional;    !- CustomDay2 ScheduleDay Name

SCHEDULE:WEEK:DAILY,
    OccupantSpace_Equipment_Week,    !- Name
    Always_off_Daily_Fractional,    !- Sunday ScheduleDay Name
    OccupantSpace_Equipment_Daily,    !- Monday ScheduleDay Name
    OccupantSpace_Equipment_Daily,    !- Tuesday ScheduleDay Name
    OccupantSpace_Equipment_Daily,    !- Wednesday ScheduleDay Name
    OccupantSpace_Equipment_Daily,    !- Thursday ScheduleDay Name
    OccupantSpace_Equipment_Daily,    !- Friday ScheduleDay Name
    Always_off_Daily_Fractional,    !- Saturday ScheduleDay Name
    Always_off_Daily_Fractional,    !- Holiday ScheduleDay Name
    OccupantSpace_Equipment_Daily,    !- SummerDesignDay ScheduleDay Name
    OccupantSpace_Equipment_Daily,    !- WinterDesignDay ScheduleDay Name
    Always_off_Daily_Fractional,    !- CustomDay1 ScheduleDay Name
    Always_off_Daily_Fractional;    !- CustomDay2 ScheduleDay Name

SCHEDULE:WEEK:DAILY,
    OccupantSpace_Heating_Week,    !- Name
    Always_off_Daily_Heating,    !- Sunday ScheduleDay Name
    OccupantSpace_Heating_Daily,    !- Monday ScheduleDay Name
    OccupantSpace_Heating_Daily,    !- Tuesday ScheduleDay Name
    OccupantSpace_Heating_Daily,    !- Wednesday ScheduleDay Name
    OccupantSpace_Heating_Daily,    !- Thursday ScheduleDay Name
    OccupantSpace_Heating_Daily,    !- Friday ScheduleDay Name